  18
  -383.695061332820     
 C    15.01572790     1.19387179     9.17160262
 C    14.72616545     0.25308609    10.16949563
 C    14.02812220    -0.82662591     9.61173266
 C    13.21664843    -1.43095878     7.34497050
 C    13.01438201    -1.25616291     5.97440968
 C    13.40833527    -0.19339881     5.16077881
 C    14.10384438     0.97085656     5.48926232
 C    14.59051825     1.37816458     6.73291559
 C    14.50398632     0.72675948     7.95456054
 C    13.85999470    -0.59055200     8.24141242
 H    15.53919488     2.11682503     9.30724651
 H    14.99707527     0.34540819    11.20136239
 H    13.67798392    -1.69051506    10.13647647
 H    12.82059265    -2.33880770     7.76340496
 H    12.48351577    -2.04693732     5.47894781
 H    13.13536466    -0.28538350     4.12560767
 H    14.28966636     1.64493835     4.67457717
 H    15.10121240     2.32427102     6.74751350
