%nproc=8
%mem=24GB
%chk=monomer_013.chk
#p B3LYP/6-31G(d) empiricaldispersion=GD3 scrf(pcm,solvent=benzene,read) nosymm

monomer_013

0 1
S      18.110001     0.880000    -2.310000
C      15.460000     0.640000    -1.630000
C      16.740000     0.400000    -1.330000
C      17.170000    -0.170000    -0.110000
C      16.190001    -0.570000     0.800000
C      14.820000    -0.360000     0.520000
C      13.770000    -0.730000     1.400000
C      12.460000    -0.460000     1.120000
C      12.090000     0.150000    -0.100000
C      13.070000     0.510000    -0.990000
C      14.440000     0.260000    -0.730000
C      18.600000    -0.180000     0.040000
C      19.260000     0.410000    -1.080000
C      20.610001     0.600000    -1.130000
C      10.630000     0.470000    -0.350000
H      10.195910     0.014200    -1.239890
H      15.230000     1.050000    -2.450000
H      16.450001    -0.980000     1.610000
H      13.990000    -1.180000     2.200000
H      11.790000    -0.680000     1.740000
H      12.830000     0.950000    -1.790000
H      21.010000     1.000000    -1.880000
H      10.110000     0.180000     0.430000
H      10.540000     1.440000    -0.420000
S      21.870001    -0.880000     2.310000
C      24.530001    -0.640000     1.630000
C      23.240000    -0.400000     1.330000
C      22.809999     0.170000     0.110000
C      23.790001     0.570000    -0.800000
C      25.160000     0.360000    -0.520000
C      26.209999     0.730000    -1.400000
C      27.530001     0.460000    -1.120000
C      27.900000    -0.150000     0.100000
C      26.910000    -0.510000     0.990000
C      25.540001    -0.260000     0.730000
C      21.379999     0.180000    -0.040000
C      20.719999    -0.410000     1.080000
C      19.370001    -0.600000     1.130000
C      29.350000    -0.470000     0.350000
H      29.784090    -0.014200     1.239890
H      24.750000    -1.050000     2.450000
H      23.540001     0.980000    -1.610000
H      25.990000     1.180000    -2.200000
H      28.190001     0.680000    -1.740000
H      27.150000    -0.950000     1.790000
H      18.969999    -1.000000     1.880000
H      29.870001    -0.180000    -0.430000
H      29.450001    -1.440000     0.420000

eps=4.0

